<?xml version="1.0" encoding="UTF-8"?>
<trips>
    <trip id="hbf_to_green_vault" depart="0.00" from="314196980#0" to="1197049653"/>
</trips>
