<?xml version="1.0" encoding="UTF-8"?>

<!-- generated on 2026-06-21T19:21:38.734562+01:00 by Eclipse SUMO netconvert 1.26.0
<netconvertConfiguration xmlns:xsi="http://www.w3.org/2001/XMLSchema-instance" xsi:noNamespaceSchemaLocation="http://sumo.dlr.de/xsd/netconvertConfiguration.xsd">

    <input>
        <osm-files value="C:\Users\huqio\Documents\AgiMo Project\outputs\bit-zhongguancun-campus\bit_zhongguancun.osm.xml"/>
    </input>

    <output>
        <output-file value="C:\Users\huqio\Documents\AgiMo Project\outputs\bit-zhongguancun-campus\bit_zhongguancun.raw.net.xml"/>
        <junctions.join-output value="C:\Users\huqio\Documents\AgiMo Project\outputs\bit-zhongguancun-campus\joined-junctions.xml"/>
    </output>

    <projection>
        <proj.utm value="true"/>
    </projection>

    <processing>
        <geometry.remove value="true"/>
    </processing>

    <tls_building>
        <tls.discard-simple value="true"/>
        <tls.guess-signals value="true"/>
    </tls_building>

    <ramp_guessing>
        <ramps.guess value="false"/>
    </ramp_guessing>

    <edge_removal>
        <keep-edges.in-geo-boundary value="116.3018,39.9548,116.3176,39.9608"/>
        <keep-edges.by-vclass value="passenger"/>
        <remove-edges.isolated value="true"/>
    </edge_removal>

    <junctions>
        <junctions.join value="true"/>
    </junctions>

    <formats>
        <osm.lane-access value="true"/>
        <osm.turn-lanes value="true"/>
    </formats>

    <report>
        <verbose value="true"/>
    </report>

</netconvertConfiguration>
-->

<net version="1.20" junctionCornerDetail="5" limitTurnSpeed="5.50" xmlns:xsi="http://www.w3.org/2001/XMLSchema-instance" xsi:noNamespaceSchemaLocation="http://sumo.dlr.de/xsd/net_file.xsd">

    <location netOffset="-440236.59,-4421822.41" convBoundary="0.00,0.00,3392.68,2319.82" origBoundary="116.297105,39.944484,116.340028,39.965779" projParameter="+proj=utm +zone=50 +ellps=WGS84 +datum=WGS84 +units=m +no_defs"/>

    <type id="highway.primary" priority="12" numLanes="2" speed="27.78" disallow="tram rail_urban rail rail_electric rail_fast ship container cable_car subway aircraft wheelchair scooter drone" oneway="0"/>
    <type id="highway.primary_link" priority="7" numLanes="1" speed="22.22" disallow="tram rail_urban rail rail_electric rail_fast ship container cable_car subway aircraft wheelchair scooter drone" oneway="0"/>
    <type id="highway.residential" priority="3" numLanes="1" speed="13.89" disallow="tram rail_urban rail rail_electric rail_fast ship container cable_car subway aircraft wheelchair scooter drone" oneway="0"/>
    <type id="highway.secondary" priority="11" numLanes="1" speed="27.78" disallow="tram rail_urban rail rail_electric rail_fast ship container cable_car subway aircraft wheelchair scooter drone" oneway="0"/>
    <type id="highway.tertiary" priority="10" numLanes="1" speed="22.22" disallow="tram rail_urban rail rail_electric rail_fast ship container cable_car subway aircraft wheelchair scooter drone" oneway="0"/>
    <type id="highway.tertiary_link" priority="5" numLanes="1" speed="22.22" disallow="tram rail_urban rail rail_electric rail_fast ship container cable_car subway aircraft wheelchair scooter drone" oneway="0"/>
    <type id="highway.trunk" priority="13" numLanes="2" speed="27.78" disallow="pedestrian bicycle tram rail_urban rail rail_electric rail_fast ship container cable_car subway aircraft wheelchair scooter drone" oneway="0"/>
    <type id="highway.trunk_link" priority="8" numLanes="1" speed="22.22" disallow="pedestrian bicycle tram rail_urban rail rail_electric rail_fast ship container cable_car subway aircraft wheelchair scooter drone" oneway="0"/>
    <type id="highway.unclassified" priority="4" numLanes="1" speed="13.89" disallow="tram rail_urban rail rail_electric rail_fast ship container cable_car subway aircraft wheelchair scooter drone" oneway="0"/>

    <edge id=":12406694667_0" function="internal">
        <lane id=":12406694667_0_0" index="0" disallow="tram rail_urban rail rail_electric rail_fast ship container cable_car subway aircraft wheelchair scooter drone" speed="3.65" length="4.67" shape="374.43,1352.88 373.25,1352.05 372.87,1351.24 373.29,1350.45 374.51,1349.68"/>
    </edge>
    <edge id=":12406694668_0" function="internal">
        <lane id=":12406694668_0_0" index="0" disallow="tram rail_urban rail rail_electric rail_fast ship container cable_car subway aircraft wheelchair scooter drone" speed="3.65" length="4.67" shape="245.03,1289.78 245.36,1288.38 245.96,1287.72 246.85,1287.81 248.02,1288.65"/>
    </edge>
    <edge id=":12406694669_0" function="internal">
        <lane id=":12406694669_0_0" index="0" disallow="tram rail_urban rail rail_electric rail_fast ship container cable_car subway aircraft wheelchair scooter drone" speed="7.20" length="10.31" shape="254.47,1296.07 251.73,1296.44 249.66,1297.60 248.28,1299.53 247.57,1302.24"/>
    </edge>
    <edge id=":12406694669_1" function="internal">
        <lane id=":12406694669_1_0" index="0" disallow="tram rail_urban rail rail_electric rail_fast ship container cable_car subway aircraft wheelchair scooter drone" speed="8.61" length="11.95" shape="254.47,1296.07 251.23,1295.67 248.59,1294.53 246.55,1292.63 245.10,1289.97"/>
    </edge>
    <edge id=":12406694669_2" function="internal">
        <lane id=":12406694669_2_0" index="0" disallow="tram rail_urban rail rail_electric rail_fast ship container cable_car subway aircraft wheelchair scooter drone" speed="3.65" length="4.67" shape="254.47,1296.07 253.27,1295.26 252.88,1294.46 253.28,1293.66 254.48,1292.87"/>
    </edge>
    <edge id=":12406694669_3" function="internal">
        <lane id=":12406694669_3_0" index="0" disallow="tram rail_urban rail rail_electric rail_fast ship container cable_car subway aircraft wheelchair scooter drone" speed="7.81" length="14.64" shape="250.16,1280.53 249.88,1285.92 250.51,1289.77 252.04,1292.09 254.48,1292.87"/>
    </edge>
    <edge id=":12406694669_4" function="internal">
        <lane id=":12406694669_4_0" index="0" disallow="tram rail_urban rail rail_electric rail_fast ship container cable_car subway aircraft wheelchair scooter drone" speed="22.22" length="21.87" shape="250.16,1280.53 247.57,1302.24"/>
    </edge>
    <edge id=":12406694669_5" function="internal">
        <lane id=":12406694669_5_0" index="0" disallow="tram rail_urban rail rail_electric rail_fast ship container cable_car subway aircraft wheelchair scooter drone" speed="6.34" length="15.61" shape="250.16,1280.53 249.07,1287.63 247.86,1291.57 246.54,1292.35 245.10,1289.97"/>
    </edge>
    <edge id=":12406694669_6" function="internal">
        <lane id=":12406694669_6_0" index="0" disallow="tram rail_urban rail rail_electric rail_fast ship container cable_car subway aircraft wheelchair scooter drone" speed="7.18" length="8.08" shape="248.10,1288.84 249.06,1290.59 250.45,1291.85 252.26,1292.61 254.48,1292.87"/>
    </edge>
    <edge id=":12406694669_7" function="internal">
        <lane id=":12406694669_7_0" index="0" disallow="tram rail_urban rail rail_electric rail_fast ship container cable_car subway aircraft wheelchair scooter drone" speed="18.05" length="13.58" shape="248.10,1288.84 248.84,1292.21 248.72,1295.43 248.15,1298.71 247.57,1302.24"/>
    </edge>
    <edge id=":12406694669_8" function="internal">
        <lane id=":12406694669_8_0" index="0" disallow="tram rail_urban rail rail_electric rail_fast ship container cable_car subway aircraft wheelchair scooter drone" speed="3.65" length="4.67" shape="248.10,1288.84 247.77,1290.25 247.16,1290.90 246.27,1290.81 245.10,1289.97"/>
    </edge>
    <edge id=":12406694670_0" function="internal">
        <lane id=":12406694670_0_0" index="0" disallow="tram rail_urban rail rail_electric rail_fast ship container cable_car subway aircraft wheelchair scooter drone" speed="6.91" length="9.54" shape="549.43,1297.44 547.00,1297.80 545.18,1298.93 543.97,1300.81 543.35,1303.45"/>
    </edge>
    <edge id=":12406694670_1" function="internal">
        <lane id=":12406694670_1_0" index="0" disallow="tram rail_urban rail rail_electric rail_fast ship container cable_car subway aircraft wheelchair scooter drone" speed="13.89" length="14.43" shape="549.43,1297.44 534.99,1297.37"/>
    </edge>
    <edge id=":12406694670_2" function="internal">
        <lane id=":12406694670_2_0" index="0" disallow="tram rail_urban rail rail_electric rail_fast ship container cable_car subway aircraft wheelchair scooter drone" speed="3.65" length="1.44" shape="549.43,1297.44 548.23,1296.63"/>
    </edge>
    <edge id=":12406694670_9" function="internal">
        <lane id=":12406694670_9_0" index="0" disallow="tram rail_urban rail rail_electric rail_fast ship container cable_car subway aircraft wheelchair scooter drone" speed="3.65" length="3.23" shape="548.23,1296.63 547.84,1295.83 548.24,1295.03 549.44,1294.24"/>
    </edge>
    <edge id=":12406694670_3" function="internal">
        <lane id=":12406694670_3_0" index="0" disallow="tram rail_urban rail rail_electric rail_fast ship container cable_car subway aircraft wheelchair scooter drone" speed="13.89" length="14.44" shape="535.01,1294.17 549.44,1294.24"/>
    </edge>
    <edge id=":12406694670_4" function="internal">
        <lane id=":12406694670_4_0" index="0" disallow="tram rail_urban rail rail_electric rail_fast ship container cable_car subway aircraft wheelchair scooter drone" speed="7.84" length="4.16" shape="535.01,1294.17 539.02,1294.76 539.11,1294.82"/>
    </edge>
    <edge id=":12406694670_5" function="internal">
        <lane id=":12406694670_5_0" index="0" disallow="tram rail_urban rail rail_electric rail_fast ship container cable_car subway aircraft wheelchair scooter drone" speed="3.65" length="1.44" shape="535.01,1294.17 536.21,1294.97"/>
    </edge>
    <edge id=":12406694670_10" function="internal">
        <lane id=":12406694670_10_0" index="0" disallow="tram rail_urban rail rail_electric rail_fast ship container cable_car subway aircraft wheelchair scooter drone" speed="7.84" length="10.42" shape="539.11,1294.82 541.74,1296.51 543.19,1299.41 543.35,1303.45"/>
    </edge>
    <edge id=":12406694670_11" function="internal">
        <lane id=":12406694670_11_0" index="0" disallow="tram rail_urban rail rail_electric rail_fast ship container cable_car subway aircraft wheelchair scooter drone" speed="3.65" length="3.23" shape="536.21,1294.97 536.60,1295.77 536.20,1296.57 534.99,1297.37"/>
    </edge>
    <edge id=":12406694670_6" function="internal">
        <lane id=":12406694670_6_0" index="0" disallow="tram rail_urban rail rail_electric rail_fast ship container cable_car subway aircraft wheelchair scooter drone" speed="6.31" length="9.04" shape="540.17,1303.13 540.07,1300.62 539.17,1298.82 537.48,1297.74 534.99,1297.37"/>
    </edge>
    <edge id=":12406694670_7" function="internal">
        <lane id=":12406694670_7_0" index="0" disallow="tram rail_urban rail rail_electric rail_fast ship container cable_car subway aircraft wheelchair scooter drone" speed="8.34" length="14.35" shape="540.17,1303.13 541.09,1299.22 542.95,1296.44 545.73,1294.78 549.44,1294.24"/>
    </edge>
    <edge id=":12406694670_8" function="internal">
        <lane id=":12406694670_8_0" index="0" disallow="tram rail_urban rail rail_electric rail_fast ship container cable_car subway aircraft wheelchair scooter drone" speed="3.65" length="4.67" shape="540.17,1303.13 541.09,1302.01 541.93,1301.70 542.68,1302.18 543.35,1303.45"/>
    </edge>
    <edge id=":12406694674_0" function="internal">
        <lane id=":12406694674_0_0" index="0" disallow="tram rail_urban rail rail_electric rail_fast ship container cable_car subway aircraft wheelchair scooter drone" speed="6.48" length="9.03" shape="416.59,1461.24 416.24,1458.79 415.19,1457.05 413.43,1456.02 410.97,1455.70"/>
    </edge>
    <edge id=":12406694674_1" function="internal">
        <lane id=":12406694674_1_0" index="0" disallow="tram rail_urban rail rail_electric rail_fast ship container cable_car subway aircraft wheelchair scooter drone" speed="13.89" length="14.40" shape="416.59,1461.24 416.59,1446.84"/>
    </edge>
    <edge id=":12406694674_2" function="internal">
        <lane id=":12406694674_2_0" index="0" disallow="tram rail_urban rail rail_electric rail_fast ship container cable_car subway aircraft wheelchair scooter drone" speed="3.65" length="1.44" shape="416.59,1461.24 417.39,1460.04"/>
    </edge>
    <edge id=":12406694674_9" function="internal">
        <lane id=":12406694674_9_0" index="0" disallow="tram rail_urban rail rail_electric rail_fast ship container cable_car subway aircraft wheelchair scooter drone" speed="3.65" length="3.23" shape="417.39,1460.04 418.19,1459.64 418.99,1460.04 419.79,1461.24"/>
    </edge>
    <edge id=":12406694674_3" function="internal">
        <lane id=":12406694674_3_0" index="0" disallow="tram rail_urban rail rail_electric rail_fast ship container cable_car subway aircraft wheelchair scooter drone" speed="13.89" length="14.40" shape="419.79,1446.84 419.79,1461.24"/>
    </edge>
    <edge id=":12406694674_4" function="internal">
        <lane id=":12406694674_4_0" index="0" disallow="tram rail_urban rail rail_electric rail_fast ship container cable_car subway aircraft wheelchair scooter drone" speed="8.04" length="4.04" shape="419.79,1446.84 419.24,1450.67 419.15,1450.82"/>
    </edge>
    <edge id=":12406694674_5" function="internal">
        <lane id=":12406694674_5_0" index="0" disallow="tram rail_urban rail rail_electric rail_fast ship container cable_car subway aircraft wheelchair scooter drone" speed="3.65" length="1.44" shape="419.79,1446.84 418.99,1448.04"/>
    </edge>
    <edge id=":12406694674_10" function="internal">
        <lane id=":12406694674_10_0" index="0" disallow="tram rail_urban rail rail_electric rail_fast ship container cable_car subway aircraft wheelchair scooter drone" speed="8.04" length="10.17" shape="419.15,1450.82 417.58,1453.42 414.83,1455.10 410.97,1455.70"/>
    </edge>
    <edge id=":12406694674_11" function="internal">
        <lane id=":12406694674_11_0" index="0" disallow="tram rail_urban rail rail_electric rail_fast ship container cable_car subway aircraft wheelchair scooter drone" speed="3.65" length="3.23" shape="418.99,1448.04 418.19,1448.44 417.39,1448.04 416.59,1446.84"/>
    </edge>
    <edge id=":12406694674_6" function="internal">
        <lane id=":12406694674_6_0" index="0" disallow="tram rail_urban rail rail_electric rail_fast ship container cable_car subway aircraft wheelchair scooter drone" speed="6.56" length="9.10" shape="410.93,1452.50 413.40,1452.12 415.17,1451.05 416.23,1449.29 416.59,1446.84"/>
    </edge>
    <edge id=":12406694674_7" function="internal">
        <lane id=":12406694674_7_0" index="0" disallow="tram rail_urban rail rail_electric rail_fast ship container cable_car subway aircraft wheelchair scooter drone" speed="7.98" length="14.24" shape="410.93,1452.50 414.80,1453.00 417.57,1454.62 419.24,1457.37 419.79,1461.24"/>
    </edge>
    <edge id=":12406694674_8" function="internal">
        <lane id=":12406694674_8_0" index="0" disallow="tram rail_urban rail rail_electric rail_fast ship container cable_car subway aircraft wheelchair scooter drone" speed="3.65" length="4.67" shape="410.93,1452.50 412.14,1453.28 412.55,1454.08 412.16,1454.88 410.97,1455.70"/>
    </edge>
    <edge id=":12406694675_0" function="internal">
        <lane id=":12406694675_0_0" index="0" disallow="tram rail_urban rail rail_electric rail_fast ship container cable_car subway aircraft wheelchair scooter drone" speed="7.31" length="9.81" shape="265.08,1457.67 262.69,1458.08 260.81,1459.25 259.43,1461.17 258.57,1463.84"/>
    </edge>
    <edge id=":12406694675_1" function="internal">
        <lane id=":12406694675_1_0" index="0" disallow="tram rail_urban rail rail_electric rail_fast ship container cable_car subway aircraft wheelchair scooter drone" speed="13.89" length="14.28" shape="265.08,1457.67 261.44,1457.66 257.95,1457.54 254.45,1457.32 250.83,1456.98"/>
    </edge>
    <edge id=":12406694675_2" function="internal">
        <lane id=":12406694675_2_0" index="0" disallow="tram rail_urban rail rail_electric rail_fast ship container cable_car subway aircraft wheelchair scooter drone" speed="3.65" length="1.44" shape="265.08,1457.67 263.87,1456.89"/>
    </edge>
    <edge id=":12406694675_9" function="internal">
        <lane id=":12406694675_9_0" index="0" disallow="tram rail_urban rail rail_electric rail_fast ship container cable_car subway aircraft wheelchair scooter drone" speed="3.65" length="3.23" shape="263.87,1456.89 263.46,1456.09 263.85,1455.29 265.04,1454.47"/>
    </edge>
    <edge id=":12406694675_3" function="internal">
        <lane id=":12406694675_3_0" index="0" disallow="tram rail_urban rail rail_electric rail_fast ship container cable_car subway aircraft wheelchair scooter drone" speed="13.89" length="13.90" shape="251.16,1453.80 254.72,1454.13 258.09,1454.35 261.46,1454.47 265.04,1454.47"/>
    </edge>
    <edge id=":12406694675_4" function="internal">
        <lane id=":12406694675_4_0" index="0" disallow="tram rail_urban rail rail_electric rail_fast ship container cable_car subway aircraft wheelchair scooter drone" speed="7.84" length="4.04" shape="251.16,1453.80 255.08,1454.78"/>
    </edge>
    <edge id=":12406694675_5" function="internal">
        <lane id=":12406694675_5_0" index="0" disallow="tram rail_urban rail rail_electric rail_fast ship container cable_car subway aircraft wheelchair scooter drone" speed="3.65" length="1.44" shape="251.16,1453.80 252.27,1454.72"/>
    </edge>
    <edge id=":12406694675_10" function="internal">
        <lane id=":12406694675_10_0" index="0" disallow="tram rail_urban rail rail_electric rail_fast ship container cable_car subway aircraft wheelchair scooter drone" speed="7.84" length="10.52" shape="255.08,1454.78 257.62,1456.78 258.79,1459.80 258.57,1463.84"/>
    </edge>
    <edge id=":12406694675_11" function="internal">
        <lane id=":12406694675_11_0" index="0" disallow="tram rail_urban rail rail_electric rail_fast ship container cable_car subway aircraft wheelchair scooter drone" speed="3.65" length="3.23" shape="252.27,1454.72 252.59,1455.55 252.11,1456.31 250.83,1456.98"/>
    </edge>
    <edge id=":12406694675_6" function="internal">
        <lane id=":12406694675_6_0" index="0" disallow="tram rail_urban rail rail_electric rail_fast ship container cable_car subway aircraft wheelchair scooter drone" speed="6.31" length="9.04" shape="255.43,1463.22 255.57,1460.71 254.84,1458.84 253.27,1457.59 250.83,1456.98"/>
    </edge>
    <edge id=":12406694675_7" function="internal">
        <lane id=":12406694675_7_0" index="0" disallow="tram rail_urban rail rail_electric rail_fast ship container cable_car subway aircraft wheelchair scooter drone" speed="8.69" length="14.22" shape="255.43,1463.22 256.68,1459.43 258.69,1456.71 261.48,1455.06 265.04,1454.47"/>
    </edge>
    <edge id=":12406694675_8" function="internal">
        <lane id=":12406694675_8_0" index="0" disallow="tram rail_urban rail rail_electric rail_fast ship container cable_car subway aircraft wheelchair scooter drone" speed="3.65" length="4.67" shape="255.43,1463.22 256.45,1462.20 257.32,1461.96 258.02,1462.51 258.57,1463.84"/>
    </edge>
    <edge id=":12406694676_0" function="internal">
        <lane id=":12406694676_0_0" index="0" disallow="tram rail_urban rail rail_electric rail_fast ship container cable_car subway aircraft wheelchair scooter drone" speed="6.57" length="9.11" shape="235.06,1455.36 232.55,1455.45 230.66,1456.31 229.39,1457.93 228.75,1460.31"/>
    </edge>
    <edge id=":12406694676_1" function="internal">
        <lane id=":12406694676_1_0" index="0" disallow="tram rail_urban rail rail_electric rail_fast ship container cable_car subway aircraft wheelchair scooter drone" speed="3.65" length="4.67" shape="235.06,1455.36 233.95,1454.44 233.63,1453.60 234.11,1452.85 235.39,1452.18"/>
    </edge>
    <edge id=":12406694676_2" function="internal">
        <lane id=":12406694676_2_0" index="0" disallow="tram rail_urban rail rail_electric rail_fast ship container cable_car subway aircraft wheelchair scooter drone" speed="6.47" length="9.03" shape="230.45,1446.01 230.51,1448.49 231.35,1450.35 232.98,1451.58 235.39,1452.18"/>
    </edge>
    <edge id=":12406694676_3" function="internal">
        <lane id=":12406694676_3_0" index="0" disallow="tram rail_urban rail rail_electric rail_fast ship container cable_car subway aircraft wheelchair scooter drone" speed="22.22" length="14.40" shape="230.45,1446.01 228.75,1460.31"/>
    </edge>
    <edge id=":12406694677_0" function="internal">
        <lane id=":12406694677_0_0" index="0" disallow="tram rail_urban rail rail_electric rail_fast ship container cable_car subway aircraft wheelchair scooter drone" speed="6.89" length="8.26" shape="260.64,1475.31 258.44,1474.81 256.50,1475.00 254.80,1475.89 253.35,1477.46"/>
    </edge>
    <edge id=":12406694677_1" function="internal">
        <lane id=":12406694677_1_0" index="0" disallow="tram rail_urban rail rail_electric rail_fast ship container cable_car subway aircraft wheelchair scooter drone" speed="8.04" length="12.67" shape="260.64,1475.31 257.63,1473.71 255.68,1471.52 254.82,1468.72 255.02,1465.32"/>
    </edge>
    <edge id=":12406694677_2" function="internal">
        <lane id=":12406694677_2_0" index="0" disallow="tram rail_urban rail rail_electric rail_fast ship container cable_car subway aircraft wheelchair scooter drone" speed="3.65" length="4.67" shape="260.64,1475.31 259.78,1474.14 259.68,1473.26 260.33,1472.64 261.73,1472.30"/>
    </edge>
    <edge id=":12406694677_3" function="internal">
        <lane id=":12406694677_3_0" index="0" disallow="tram rail_urban rail rail_electric rail_fast ship container cable_car subway aircraft wheelchair scooter drone" speed="6.54" length="8.07" shape="258.15,1465.94 258.03,1468.11 258.58,1469.89 259.82,1471.29 261.73,1472.30"/>
    </edge>
    <edge id=":12406694677_4" function="internal">
        <lane id=":12406694677_4_0" index="0" disallow="tram rail_urban rail rail_electric rail_fast ship container cable_car subway aircraft wheelchair scooter drone" speed="13.89" length="12.59" shape="258.15,1465.94 257.39,1469.23 256.45,1472.00 255.16,1474.62 253.35,1477.46"/>
    </edge>
    <edge id=":12406694677_5" function="internal">
        <lane id=":12406694677_5_0" index="0" disallow="tram rail_urban rail rail_electric rail_fast ship container cable_car subway aircraft wheelchair scooter drone" speed="3.65" length="1.44" shape="258.15,1465.94 257.14,1466.96"/>
    </edge>
    <edge id=":12406694677_9" function="internal">
        <lane id=":12406694677_9_0" index="0" disallow="tram rail_urban rail rail_electric rail_fast ship container cable_car subway aircraft wheelchair scooter drone" speed="3.65" length="3.23" shape="257.14,1466.96 256.27,1467.20 255.57,1466.65 255.02,1465.32"/>
    </edge>
    <edge id=":12406694677_6" function="internal">
        <lane id=":12406694677_6_0" index="0" disallow="tram rail_urban rail rail_electric rail_fast ship container cable_car subway aircraft wheelchair scooter drone" speed="13.89" length="11.31" shape="250.71,1475.65 252.44,1472.99 253.56,1470.78 254.33,1468.42 255.02,1465.32"/>
    </edge>
    <edge id=":12406694677_7" function="internal">
        <lane id=":12406694677_7_0" index="0" disallow="tram rail_urban rail rail_electric rail_fast ship container cable_car subway aircraft wheelchair scooter drone" speed="8.35" length="3.46" shape="250.71,1475.65 252.92,1473.23 253.08,1473.15"/>
    </edge>
    <edge id=":12406694677_8" function="internal">
        <lane id=":12406694677_8_0" index="0" disallow="tram rail_urban rail rail_electric rail_fast ship container cable_car subway aircraft wheelchair scooter drone" speed="3.65" length="1.44" shape="250.71,1475.65 252.05,1475.12"/>
    </edge>
    <edge id=":12406694677_10" function="internal">
        <lane id=":12406694677_10_0" index="0" disallow="tram rail_urban rail rail_electric rail_fast ship container cable_car subway aircraft wheelchair scooter drone" speed="8.35" length="9.07" shape="253.08,1473.15 255.49,1471.87 258.43,1471.56 261.73,1472.30"/>
    </edge>
    <edge id=":12406694677_11" function="internal">
        <lane id=":12406694677_11_0" index="0" disallow="tram rail_urban rail rail_electric rail_fast ship container cable_car subway aircraft wheelchair scooter drone" speed="3.65" length="3.23" shape="252.05,1475.12 252.94,1475.24 253.37,1476.02 253.35,1477.46"/>
    </edge>
    <edge id=":12406694679_0" function="internal">
        <lane id=":12406694679_0_0" index="0" disallow="tram rail_urban rail rail_electric rail_fast ship container cable_car subway aircraft wheelchair scooter drone" speed="3.65" length="4.67" shape="311.75,1473.75 312.95,1474.54 313.36,1475.34 312.97,1476.14 311.77,1476.95"/>
    </edge>
    <edge id=":12406694688_0" function="internal">
        <lane id=":12406694688_0_0" index="0" disallow="tram rail_urban rail rail_electric rail_fast ship container cable_car subway aircraft wheelchair scooter drone" speed="6.85" length="9.50" shape="233.26,1666.39 230.59,1666.74 228.62,1667.78 227.36,1669.49 226.80,1671.88"/>
    </edge>
    <edge id=":12406694688_1" function="internal">
        <lane id=":12406694688_1_0" index="0" disallow="tram rail_urban rail rail_electric rail_fast ship container cable_car subway aircraft wheelchair scooter drone" speed="7.84" length="14.56" shape="233.26,1666.39 229.25,1665.83 226.51,1664.12 225.02,1661.24 224.81,1657.20"/>
    </edge>
    <edge id=":12406694688_2" function="internal">
        <lane id=":12406694688_2_0" index="0" disallow="tram rail_urban rail rail_electric rail_fast ship container cable_car subway aircraft wheelchair scooter drone" speed="3.65" length="4.67" shape="233.26,1666.39 232.05,1665.60 231.65,1664.80 232.04,1664.00 233.24,1663.19"/>
    </edge>
    <edge id=":12406694688_3" function="internal">
        <lane id=":12406694688_3_0" index="0" disallow="tram rail_urban rail rail_electric rail_fast ship container cable_car subway aircraft wheelchair scooter drone" speed="6.31" length="9.04" shape="227.99,1657.48 228.13,1659.99 229.05,1661.78 230.75,1662.84 233.24,1663.19"/>
    </edge>
    <edge id=":12406694688_4" function="internal">
        <lane id=":12406694688_4_0" index="0" disallow="tram rail_urban rail rail_electric rail_fast ship container cable_car subway aircraft wheelchair scooter drone" speed="13.89" length="14.45" shape="227.99,1657.48 226.80,1671.88"/>
    </edge>
    <edge id=":12406694688_5" function="internal">
        <lane id=":12406694688_5_0" index="0" disallow="tram rail_urban rail rail_electric rail_fast ship container cable_car subway aircraft wheelchair scooter drone" speed="3.65" length="1.44" shape="227.99,1657.48 227.09,1658.61"/>
    </edge>
    <edge id=":12406694688_9" function="internal">
        <lane id=":12406694688_9_0" index="0" disallow="tram rail_urban rail rail_electric rail_fast ship container cable_car subway aircraft wheelchair scooter drone" speed="3.65" length="3.23" shape="227.09,1658.61 226.26,1658.94 225.50,1658.47 224.81,1657.20"/>
    </edge>
    <edge id=":12406694688_6" function="internal">
        <lane id=":12406694688_6_0" index="0" disallow="tram rail_urban rail rail_electric rail_fast ship container cable_car subway aircraft wheelchair scooter drone" speed="13.89" length="14.49" shape="223.61,1671.64 224.81,1657.20"/>
    </edge>
    <edge id=":12406694688_7" function="internal">
        <lane id=":12406694688_7_0" index="0" disallow="tram rail_urban rail rail_electric rail_fast ship container cable_car subway aircraft wheelchair scooter drone" speed="8.29" length="3.99" shape="223.61,1671.64 224.45,1667.96 224.57,1667.79"/>
    </edge>
    <edge id=":12406694688_8" function="internal">
        <lane id=":12406694688_8_0" index="0" disallow="tram rail_urban rail rail_electric rail_fast ship container cable_car subway aircraft wheelchair scooter drone" speed="3.65" length="1.44" shape="223.61,1671.64 224.50,1670.50"/>
    </edge>
    <edge id=":12406694688_10" function="internal">
        <lane id=":12406694688_10_0" index="0" disallow="tram rail_urban rail rail_electric rail_fast ship container cable_car subway aircraft wheelchair scooter drone" speed="8.29" length="10.37" shape="224.57,1667.79 226.34,1665.33 229.26,1663.74 233.24,1663.19"/>
    </edge>
    <edge id=":12406694688_11" function="internal">
        <lane id=":12406694688_11_0" index="0" disallow="tram rail_urban rail rail_electric rail_fast ship container cable_car subway aircraft wheelchair scooter drone" speed="3.65" length="3.23" shape="224.50,1670.50 225.33,1670.17 226.09,1670.63 226.80,1671.88"/>
    </edge>
    <edge id=":12406694697_0" function="internal">
        <lane id=":12406694697_0_0" index="0" disallow="tram rail_urban rail rail_electric rail_fast ship container cable_car subway aircraft wheelchair scooter drone" speed="3.65" length="4.67" shape="274.34,1720.85 275.22,1721.99 275.35,1722.88 274.71,1723.51 273.32,1723.89"/>
    </edge>
    <edge id=":12406694698_0" function="internal">
        <lane id=":12406694698_0_0" index="0" disallow="tram rail_urban rail rail_electric rail_fast ship container cable_car subway aircraft wheelchair scooter drone" speed="6.52" length="9.05" shape="417.92,1670.97 417.55,1668.53 416.48,1666.79 414.72,1665.75 412.26,1665.41"/>
    </edge>
    <edge id=":12406694698_1" function="internal">
        <lane id=":12406694698_1_0" index="0" disallow="tram rail_urban rail rail_electric rail_fast ship container cable_car subway aircraft wheelchair scooter drone" speed="13.89" length="14.40" shape="417.92,1670.97 417.80,1656.57"/>
    </edge>
    <edge id=":12406694698_2" function="internal">