<?xml version="1.0" encoding="UTF-8"?>

<!-- generated on 2026-06-21 19:21:53.833315 by Eclipse SUMO randomTrips.py v1_26_0+0000-fa7df22d7f1
<configuration>
    <net-file value="C:\Users\huqio\Documents\AgiMo Project\outputs\bit-zhongguancun-campus\bit_zhongguancun.net.xml"/>
    <output-trip-file value="C:\Users\huqio\Documents\AgiMo Project\outputs\bit-zhongguancun-campus\routeability.trips.xml"/>
    <route-file value="C:\Users\huqio\Documents\AgiMo Project\outputs\bit-zhongguancun-campus\routeability.rou.xml"/>
    <vehicle-class value="passenger"/>
    <fringe-factor value="10"/>
    <end value="300.0"/>
    <period value="30.0"/>
</configuration>
-->

<routes xmlns:xsi="http://www.w3.org/2001/XMLSchema-instance" xsi:noNamespaceSchemaLocation="http://sumo.dlr.de/xsd/routes_file.xsd">
    <vType id="passenger" vClass="passenger"/>
    <trip id="0" depart="0.00" from="167649023#0" to="-1341230760#0" type="passenger"/>
    <trip id="1" depart="30.00" from="-934714246#3" to="-352009351#0" type="passenger"/>
    <trip id="2" depart="60.00" from="257453039#4" to="182042882#1" type="passenger"/>
    <trip id="3" depart="90.00" from="1341230759" to="-1341230760#0" type="passenger"/>
    <trip id="4" depart="120.00" from="-934713612#6" to="1341230765" type="passenger"/>
    <trip id="5" depart="150.00" from="-1341230762" to="-257453041" type="passenger"/>
    <trip id="6" depart="180.00" from="182040093" to="139339318#1" type="passenger"/>
    <trip id="7" depart="210.00" from="-934713612#6" to="160097699#0" type="passenger"/>
    <trip id="8" depart="240.00" from="42399132" to="-1341230759" type="passenger"/>
    <trip id="9" depart="270.00" from="42399132" to="219439618#0" type="passenger"/>
</routes>
