<?xml version="1.0" encoding="UTF-8"?>
<configuration>
  <input>
    <net-file value="bit_zhongguancun.net.xml"/>
    <route-files value="routeability.rou.xml"/>
  </input>
  <time>
    <begin value="0"/>
    <end value="1200"/>
  </time>
  <report>
    <verbose value="true"/>
    <no-step-log value="true"/>
  </report>
</configuration>
